version 2
run General-3-20191217-19:15:19-12664
attr configname General
attr datetime 20191217-19:15:19
attr experiment General
attr inifile omnetpp.ini
attr iterationvars ""
attr iterationvarsf ""
attr measurement ""
attr network my_PQ
attr processid 12664
attr repetition 3
attr replication #3
attr resultdir results
attr runnumber 3
attr seedset 3
param **.source.interArrivalTime "exponential(1 s)"
param **.source1.interArrivalTime "exponential(2 s)"
param **.source.numJobs 200
param **.source.jobType 0
param **.source1.numJobs 100
param **.source1.jobType 1
param **.delay.delay "3.5 s + normal(.3 s, .1 s)"
param **.delay1.delay "30.5 s + normal(.3 s, .1s)"
param **.delay2.delay "0.5 s +  normal(.3 s, .1s)"
param **.delay3.delay "0.5 s +  normal(.3 s, .1s)"
param **.server.serviceTime "exponential(.01 s)"
param **.server1.serviceTime "exponential(.01 s)"

vector 0 my_PQ.passiveQueue queueLength:vector ETV
attr interpolationmode sample-hold
attr title "queue length, vector"
vector 1 my_PQ.passiveQueue1 queueLength:vector ETV
attr interpolationmode sample-hold
attr title "queue length, vector"
vector 2 my_PQ.sink lifeTime:vector ETV
attr interpolationmode none
attr title "lifetime of arrived jobs, vector"
attr unit s
0	0	0	0
1	0	0	0
1	747	60.428236573571	1
1	748	60.430701612375	0
1	2008	149.037018971898	1
1	2009	149.043526233096	0
1	2054	151.506849834229	1
1	2055	151.507038452803	0
2	278	22.413624294665	21.613341903772
2	294	23.365640309707	21.850317621456
2	312	25.618605638789	21.837096408274
2	313	26.218488697577	21.826640601467
2	322	27.065282795135	21.779729945082
2	329	27.613898949705	21.792029668064
2	343	28.80604909287	21.802822929607
2	350	29.224879207418	21.970678421224
2	360	31.72743334662	21.718347747593
2	375	33.717273809866	21.83900193815
2	376	33.881261550921	21.906239750945
2	396	34.530414349389	21.739307350471
2	398	35.038587590494	21.902462056387
2	425	36.971751905869	21.865692569616
2	427	37.034338129318	21.703410362134
2	428	37.070659858861	21.648461437655
2	437	37.729448917801	21.857557261855
2	459	38.758898378526	21.718464070014
2	461	39.872975653438	21.729514913103
2	477	40.697532608716	21.703583236548
2	481	40.919699405699	21.647786685541
2	489	41.173953332367	21.639916850033
2	508	42.404591975383	21.819369977426
2	511	42.5137646153	21.859225311851
2	513	42.688908943187	21.81250523844
2	514	42.838427834418	21.856547669428
2	524	43.437562556904	21.649864191385
2	542	44.469035551631	21.902589255212
2	544	44.799405692777	21.926588204755
2	563	46.40363114768	21.703262895303
2	569	47.286530820471	21.931774546723
2	582	48.50615295197	21.785875754363
2	612	50.80668867067	50.659987794741
2	613	51.061746869556	21.888349298053
2	646	53.074558449681	50.464841883268
2	650	53.549653202508	50.475459871157
2	660	54.443574746426	50.206850050966
2	661	54.642927833305	21.890460423704
2	669	55.399018309828	50.509483061393
2	672	56.075839745978	21.774002654322
2	678	56.436905869444	21.940010389109
2	681	57.101312401701	50.575017982047
2	682	57.112423454523	50.244866150797
2	715	58.592804994039	21.866638149255
2	730	59.080237749184	21.702107320101
2	740	60.261897129023	50.363220839146
2	782	62.304112269736	21.792147477449
2	783	62.380015002784	50.249514498596
2	804	62.840222613323	21.91169867535
2	805	63.018458248524	21.746214449447
2	807	63.078511975087	50.438086314515
2	810	63.393660323036	21.949401281168
2	819	64.01773367765	50.111546553141
2	849	64.96837588768	50.39546858479
2	852	65.057863789078	21.772111075716
2	855	65.410201777319	21.747835063039
2	858	65.734801623316	21.905506027034
2	868	66.201723855134	50.416263957375
2	884	69.037491399829	50.505305062413
2	886	69.231380550628	21.839862988664
2	902	70.05503616135	50.3447527155
2	912	71.151713151467	21.703067134901
2	913	71.29041003513	50.291074979102
2	916	71.595530303734	21.819359461172
2	928	72.41380064111	21.862303543265
2	961	73.832469935395	21.78946098141
2	962	74.269290105789	21.806067021792
2	970	74.331623063268	21.821835164487
2	985	75.594615035875	21.727169705832
2	1023	77.521775618079	50.445109026573
2	1034	78.352545975392	50.364654155664
2	1042	78.918471337324	50.493320563036
2	1046	79.375268775994	21.693271339052
2	1047	79.513207971888	21.751630082959
2	1056	79.90540671481	21.94076688749
2	1064	80.409505052413	21.756142576883
2	1068	80.67425381927	21.84981276331
2	1095	81.627158025227	50.615162952963
2	1104	81.999058323499	21.571567548195
2	1106	82.286874014324	21.858637440753
2	1110	82.439624467332	21.980607647434
2	1112	82.616149331606	50.035407784479
2	1125	83.419425643696	21.822530180653
2	1127	83.842376771906	21.749613232865
2	1128	84.215103473758	50.292086576069
2	1129	84.435167917307	21.763618336362
2	1147	85.550897197905	50.41291590276
2	1162	86.063922984472	50.515819767791
2	1163	86.100502091327	50.653110395387
2	1164	86.174003994743	21.816230411191
2	1166	86.742816360321	21.845016780528
2	1167	86.962395916167	22.001080525027
2	1176	88.522571913298	50.350549786753
2	1179	88.925377069842	50.607928574007
2	1182	89.209518328773	50.719055519839
2	1192	90.539728408751	50.492897302116
2	1200	91.214249358189	21.777665092176
2	1201	91.270667304918	21.877063110506
2	1204	92.307724400616	21.744138899109
2	1206	92.473700949708	50.071704890759
2	1214	93.693827128877	22.016809316659
2	1239	95.482380327962	50.486088871585
2	1240	95.560699346847	21.831936515969
2	1254	95.806262807858	50.259596268532
2	1256	96.088575186082	21.819279976151
2	1283	98.283854182153	21.704839761086
2	1285	98.561598247527	21.792361130405
2	1286	98.683706472321	21.779293983808
2	1301	99.271426156885	21.691307246941
2	1332	100.335691902505	21.75803936426
2	1344	101.398374809405	21.769063684345
2	1362	102.611900614578	21.808292944376
2	1364	102.768804777056	50.504244055248
2	1365	102.792862563886	21.840975402948
2	1366	102.98601203411	21.798774066023
2	1383	103.825798597144	21.912385003445
2	1396	105.020190761832	50.344269644284
2	1397	105.137115367121	21.858732626344
2	1417	106.521908656751	21.775350047322
2	1449	108.494221336077	50.28610417449
2	1484	110.666534302725	50.520548940349
2	1492	111.188556794559	50.485845020105
2	1501	111.771608831268	21.555633981566
2	1515	112.626592362598	21.866936429815
2	1516	112.750824471449	50.321838386998
2	1520	113.368147514628	50.650916772101
2	1528	114.047429654794	50.273847685952
2	1535	114.576838032364	50.489270063003
2	1539	115.531224817105	21.860043230955
2	1547	115.729204195814	21.929421819052
2	1548	116.223090202608	50.244114886007
2	1570	117.272826825819	22.177803961125
2	1572	117.406362441166	21.812982703439
2	1593	118.260204998199	21.816180146858
2	1596	119.144746760289	50.504480566499
2	1599	119.25923966258	21.849399561367
2	1609	119.69430809564	21.861418993937
2	1623	120.579713664597	21.66699362625
2	1645	121.628178693039	21.735809231209
2	1649	121.84591690666	21.966716588587
2	1662	122.129707248921	21.891663853103
2	1679	123.000142879164	50.469126062742
2	1680	123.064508044283	50.416383477172
2	1690	123.846192606282	50.127766990944
2	1717	125.335627212796	50.320503500705
2	1725	125.774209085691	21.700865319615
2	1733	126.193963473025	50.602971712631
2	1742	127.066595954129	21.684016094351
2	1750	127.640427245229	50.371228955255
2	1759	128.590627828924	21.868511888928
2	1766	129.454451334039	21.758646878313
2	1787	129.928366158062	21.814806429131
2	1797	130.470927565901	22.013069972969
2	1804	130.79214141096	50.393495971512
2	1807	131.296647583779	21.740735362081
2	1829	132.264867866199	50.735217656293
2	1832	132.616694774339	21.871677702796
2	1843	133.427302474891	21.714047188758
2	1860	134.322483976819	21.904824461589
2	1862	135.176141783908	21.781278937311
2	1866	135.366946230877	50.363194586496
2	1868	135.92072605288	50.195551579933
2	1870	136.148422444603	50.342933856501
2	1875	137.508512920018	21.861288533004
2	1888	138.649926066148	50.21309611969
2	1890	138.819868997535	21.848652582015
2	1891	138.860838648757	21.775500005419
2	1900	139.763790394244	21.987691277088
2	1914	140.949520882696	21.639784656982
2	1917	141.801400750841	21.818200590659
2	1920	142.256472318712	21.795685847072
2	1921	142.518570806514	21.817596016212
2	1924	143.225711031126	21.690407143868
2	1934	143.71519123634	21.752838699223
2	1943	144.354439473013	50.310573918006
2	1959	145.475504496113	21.714143173661
2	1962	146.077453831155	50.502473635981
2	1963	146.154679863856	21.725126066774
2	1980	146.823855288327	21.642476394315
2	1987	146.963420728581	21.699081084656
2	1988	147.175875108024	21.799773349299
2	1995	148.087437728883	21.915697912819
2	2015	149.265834750774	21.797162674008
2	2016	149.409149522198	50.401334287989
2	2031	150.229372932054	50.531129717881
2	2040	151.131697714257	50.450675700411
2	2047	151.362229333661	21.783173125447
2	2060	151.528689998436	21.756641543645
2	2061	151.722673085217	21.755988347454
2	2062	151.724759616344	21.883821868826
2	2076	151.925476872044	50.181095823471
2	2090	152.580826013126	50.660483123562
2	2100	153.239515514069	21.884240123213
2	2103	153.291688541142	50.022275920112
2	2104	153.309018919763	21.770758354528
2	2105	153.336824140114	21.820256935759
2	2125	154.334371600269	50.594397474962
2	2133	155.355334967152	21.962906332423
2	2140	155.649548075217	50.407999344012
2	2141	155.783360781322	21.89081325469
2	2198	159.825076667598	50.390985580611
2	2199	159.95920249452	50.582515533631
2	2200	160.035364417776	21.759984147635
2	2224	161.13508278685	50.826570815361
2	2231	161.270391942596	21.86141950691
2	2273	164.579553034051	50.430792976109
2	2277	165.191318971454	21.900642063064
2	2282	166.193950387348	21.717385496795
2	2306	167.133972569177	21.830326601558
2	2309	167.674633499888	50.250750694281
2	2310	167.920778190144	50.271084374775
2	2312	168.164928691928	21.858293531591
2	2325	168.603006267089	21.660117145718
2	2353	170.785297733566	21.748278761668
2	2361	170.932702314635	21.897006749428
2	2365	171.819569886044	50.245739396363
2	2366	171.855102833199	21.758490586011
2	2381	172.478062459006	50.629361789686
2	2389	172.908974363601	21.651448975422
2	2390	172.934831850909	50.219879770885
2	2397	172.993717332035	50.309197147569
2	2399	173.231444048914	21.742404495296
2	2404	173.345448493913	21.838598659684
2	2409	174.280214005577	21.814176530118
2	2438	175.918448145984	21.886217821996
2	2439	175.973642168089	21.736310867149
2	2446	177.342186685558	50.912109142258
2	2460	177.699221254853	21.731496038929
2	2470	178.536478583854	21.820984268648
2	2472	178.670643434556	50.325114213344
2	2473	178.753882212112	21.646244163293
2	2480	179.594327948296	21.876075093915
2	2483	180.593106811034	21.722473687841
2	2484	180.787780773746	21.759298688218
2	2486	180.843885402284	50.230462216049
2	2505	181.990536012079	21.855271844504
2	2522	183.116110209443	21.864203547948
2	2525	183.889231851025	50.399770657552
2	2540	184.597552034368	21.913833190673
2	2550	185.577910369347	21.86618676957
2	2591	188.113430416219	21.778367939191
2	2608	188.879431766607	21.833747771413
2	2623	190.313700426712	21.811378360746
2	2633	191.041731243092	21.713655208519
2	2637	191.437228208721	50.625544512825
2	2645	191.740461106509	21.811949462465
2	2649	192.329449018524	21.814475308265
2	2652	192.439081218933	21.596514050233
2	2657	193.984919482887	21.87864613726
2	2673	194.525715411885	21.933739482938
2	2675	194.669707689451	50.526678117534
2	2676	194.77892959748	21.837483393155
2	2679	195.07453486606	21.738650189439
2	2698	196.30695092986	21.799017712275
2	2700	196.448238581243	21.734150202242
2	2705	197.192906916943	50.59719600335
2	2708	197.595458707182	21.819235493275
2	2719	199.248434467027	21.729836447651
2	2720	199.310488772535	21.777958056785
2	2721	199.547733508737	21.578704121964
2	2726	200.042596136012	50.277495819318
2	2729	200.635041210832	21.803149126913
2	2730	201.035143869255	50.708030689377
2	2733	202.220617798657	50.49207084652
2	2734	202.32677520058	50.507234306179
2	2736	202.729050336435	50.366349635234
2	2737	202.829440282434	21.799687136987
2	2739	203.065192114247	21.818459189965
2	2741	203.421696129304	50.448145202053
2	2744	204.252216503354	21.850980190597
2	2745	204.278423650812	21.788408862574
2	2753	205.908424843811	21.944368269301
2	2755	206.01871257272	50.545107938303
2	2756	206.043824783486	21.830254519297
2	2759	206.61063620181	21.536822381458
2	2763	207.956543463239	21.913032343808
2	2765	208.471553857039	50.486733980576
2	2766	208.656424190995	21.730850959339
2	2768	208.957734855686	21.804992634613
2	2769	209.194264980824	22.010236110344
2	2771	209.743411894021	21.851100601904
2	2772	209.946492657024	21.692017527034
2	2774	210.263595358972	21.721435699388
2	2775	210.582450295668	50.313840986776
2	2777	211.324194380221	21.862133953329
2	2778	211.42136112313	50.60787339422
2	2780	211.895476709438	50.283630202202
2	2782	212.577200249182	21.759161539958
2	2786	213.15224186265	50.333838419701
2	2788	213.505877980496	21.80679269375
2	2789	213.971075028241	50.351031211913
2	2791	215.96093900077	21.687810072507
2	2792	215.961048948189	21.573295861551
2	2794	216.922540423405	50.514786145553
2	2795	217.051988850982	21.662559473335
2	2796	217.935526375949	21.837974140758
2	2797	218.703896932146	50.243495396786
2	2799	219.448432386583	50.139018465845
2	2801	222.594951646007	50.554509186145
2	2802	225.624078000749	50.21828212954

