version 2
run General-0-20191217-19:14:41-18444
attr configname General
attr datetime 20191217-19:14:41
attr experiment General
attr inifile omnetpp.ini
attr iterationvars ""
attr iterationvarsf ""
attr measurement ""
attr network my_PQ
attr processid 18444
attr repetition 0
attr replication #0
attr resultdir results
attr runnumber 0
attr seedset 0
param **.source.interArrivalTime "exponential(1 s)"
param **.source1.interArrivalTime "exponential(2 s)"
param **.source.numJobs 200
param **.source.jobType 0
param **.source1.numJobs 100
param **.source1.jobType 1
param **.delay.delay "3.5 s + normal(.3 s, .1 s)"
param **.delay1.delay "30.5 s + normal(.3 s, .1s)"
param **.delay2.delay "0.5 s +  normal(.3 s, .1s)"
param **.delay3.delay "0.5 s +  normal(.3 s, .1s)"
param **.server.serviceTime "exponential(.01 s)"
param **.server1.serviceTime "exponential(.01 s)"

vector 0 my_PQ.passiveQueue queueLength:vector ETV
attr interpolationmode sample-hold
attr title "queue length, vector"
vector 1 my_PQ.passiveQueue1 queueLength:vector ETV
attr interpolationmode sample-hold
attr title "queue length, vector"
vector 2 my_PQ.sink lifeTime:vector ETV
attr interpolationmode none
attr title "lifetime of arrived jobs, vector"
attr unit s
0	0	0	0
1	0	0	0
2	260	22.69972761419	21.903853109624
2	275	23.825087703983	21.77328244137
2	299	24.854018216096	21.764053652819
2	330	27.111535896174	21.798046910861
2	351	29.458639612289	21.546896541127
2	375	31.754210928619	21.802153599515
2	377	33.223214152233	21.754620849139
2	397	34.399797965218	21.909772787775
2	428	37.17714964945	21.79270399402
2	436	38.050215161144	21.825434800102
2	458	38.920577913354	21.734416613246
2	474	40.280102508958	21.94880225415
2	482	40.65189297148	21.746060309931
2	490	40.973979221304	21.930117871327
2	499	41.594627865661	22.098664455459
2	508	41.83861515378	21.765327432771
2	509	41.907830959122	21.726908129957
2	510	42.051534069032	21.694697694441
2	512	42.427780075923	21.778863168065
2	516	42.680530226909	21.751336310572
2	517	42.916572569926	21.721710974545
2	518	42.924085597408	21.877936271279
2	526	43.330212380467	22.033205903561
2	527	43.46282751023	22.064786258015
2	532	43.999052158167	21.968674309556
2	547	44.852763745633	21.893907400121
2	561	46.076978812348	21.938932939771
2	569	46.127383681498	21.890687500503
2	589	48.565375971342	21.679423861671
2	591	48.761628619733	21.673326071495
2	592	48.773861380948	21.665246373914
2	600	48.886458848755	21.773137301229
2	607	49.236623553764	21.808580345383
2	651	52.109291226348	50.31217044938
2	659	52.568559273834	21.865372887738
2	685	53.506374595556	21.953967397896
2	694	53.981369949159	50.609846892227
2	715	54.584972475251	50.246245208422
2	724	55.084511508037	21.65864443052
2	734	55.590404197451	21.81151698666
2	737	56.289435757631	22.005529799085
2	738	56.374271865575	50.53019637212
2	740	56.509011582931	50.482614037227
2	749	56.876907630709	21.722465845837
2	758	58.171948147488	21.838123428971
2	760	58.816723439545	21.787099260128
2	774	59.739878393081	21.777851333257
2	775	59.774265452606	50.172892580025
2	791	60.125066981931	21.804112706237
2	799	60.486825587609	21.677697708769
2	800	60.535025344569	21.871471444177
2	807	61.475970937541	21.82295458611
2	827	62.335603669423	21.626737709332
2	836	63.073075193679	50.261223206975
2	861	64.200008344808	50.317024917648
2	862	64.67469211695	21.740911499634
2	889	66.797662297938	21.837972863519
2	894	67.421109396471	50.561616317808
2	895	67.440013178236	21.957453713729
2	908	68.162317682424	22.075459146069
2	912	69.24790379826	50.469314764861
2	913	69.289632973805	50.386813359473
2	915	69.888624838847	21.788993566286
2	923	70.646950992958	21.81118862041
2	925	70.915341627782	21.856440047133
2	940	71.798293257991	50.674278752285
2	942	72.302049290413	50.178054271109
2	943	72.460851083245	21.82353678049
2	948	72.671361777417	50.62731935623
2	951	72.729662353923	21.820679980826
2	954	72.905918755252	50.525810205326
2	955	73.005373577789	50.372487755012
2	957	73.42794126611	21.751879238441
2	966	74.138664414881	50.43600984059
2	969	74.570542140137	21.584694741106
2	971	74.875024083505	50.555539829018
2	973	74.996661043704	21.80478159619
2	989	75.840109949751	21.973985932601
2	991	76.022658468817	21.75787630396
2	992	76.057632268321	21.817838456777
2	1000	76.863690831334	50.342514756665
2	1007	77.141386266636	21.739065596238
2	1033	79.293948819394	50.252905124507
2	1050	80.845114314617	50.087284684072
2	1060	81.888778840855	21.846805644083
2	1062	82.076097929424	21.79140623898
2	1108	83.385979382932	21.788779699522
2	1111	83.664545137824	21.834820436029
2	1112	84.147521967227	21.849120789455
2	1115	84.451049724979	21.827432529231
2	1132	85.22783146601	21.875690427528
2	1141	85.687202688793	21.83078171706
2	1144	85.843851469524	21.784971734093
2	1158	86.525514144802	21.79709381851
2	1178	87.066528324086	50.204135379772
2	1204	89.423354721622	21.874298446915
2	1205	89.592231737718	50.664244772113
2	1232	91.123132227042	50.486985790151
2	1241	91.764188221252	50.211696016445
2	1243	91.967372267202	21.765757476975
2	1253	92.48552970448	50.721812212415
2	1255	92.957557752414	21.87306241723
2	1263	93.576548422447	21.827245337711
2	1268	94.86353562948	50.594603087592
2	1270	95.030910024828	50.497610063711
2	1276	95.611182647807	21.770322990448
2	1299	97.331548177219	21.885229756792
2	1307	97.624026068934	21.830954344718
2	1310	98.074117217548	50.247379053777
2	1319	98.846684769779	21.931267024486
2	1320	98.8521168614	22.097033210594
2	1327	99.322661794921	21.756446707269
2	1330	99.776775514768	21.75076910934
2	1339	100.967985467941	50.522650576124
2	1340	101.110755643785	50.600707142677
2	1344	101.448607432884	21.695967647714
2	1357	102.763082454064	50.310069636766
2	1395	103.89111256669	50.422369504019
2	1396	103.92479591661	21.801768550826
2	1403	104.192128649461	21.74992344699
2	1404	104.274983026013	21.821284573333
2	1406	104.370694974248	50.31493660773
2	1407	104.378048850156	21.990751020236
2	1408	104.479285125592	21.866653493256
2	1409	104.513566136915	21.807059957296
2	1416	104.925189743343	21.937159541253
2	1417	105.517722438881	50.513131491697
2	1463	106.680072557451	21.721984789769
2	1464	106.712134800827	21.697080500678
2	1465	107.063553745749	21.744527886371
2	1467	107.288382094901	50.745551545524
2	1476	108.466592425237	21.958070314524
2	1483	108.560885033884	21.85250738525
2	1487	109.763548856512	50.379951395965
2	1493	110.130640416088	21.914047535827
2	1494	110.203523534585	21.76746249343
2	1503	110.325812483839	50.303065713546
2	1522	111.704093463094	21.659614572853
2	1562	115.162756124288	21.913468404435
2	1574	116.488755512315	50.359639402835
2	1579	117.49750485536	21.904977205414
2	1606	118.858813500211	21.978323875189
2	1607	119.151184787217	21.873614212175
2	1608	119.38289584364	21.830861746594
2	1611	121.03868405681	21.895093836971
2	1636	123.094075811554	50.427966900428
2	1658	123.884489807877	21.70695701564
2	1659	124.214192428839	21.863003073394
2	1662	124.654532191694	21.795123382196
2	1664	125.14394178169	21.732829359602
2	1672	125.855966428229	22.005777020553
2	1673	125.859393443939	21.904271288935
2	1703	127.736316625679	21.744900283403
2	1704	127.889624958739	21.882479492688
2	1705	127.896421620954	21.818774206542
2	1706	128.11678035994	21.789182128878
2	1708	128.312714020153	21.844640072136
2	1710	128.687667374335	22.096878419001
2	1719	129.261278378824	50.077327513329
2	1722	129.805344130428	50.415456537495
2	1759	132.14107867748	21.890727603684
2	1768	133.621090772967	21.841800828459
2	1772	134.303801687443	21.715532047802
2	1799	135.617288462311	21.802886610436
2	1843	137.07713225851	50.352306857716
2	1856	137.240194231155	50.632424628254
2	1865	138.217306161571	21.813078164199
2	1888	140.021386858059	50.291735869843
2	1899	140.993141644297	50.530588072416
2	1915	142.066754616612	50.478550641097
2	1920	142.703059478913	50.464513762421
2	1922	142.994995703462	21.761047458121
2	1931	143.542660242419	21.832196176105
2	1948	144.781252405861	21.689329259699
2	1967	145.357763337785	21.669290274746
2	1979	147.425311791105	21.717254224847
2	2000	148.756729793182	50.252525097597
2	2019	150.921016416874	50.628808915929
2	2021	150.997791517935	21.848789904092
2	2050	151.979998273245	21.933943645296
2	2055	152.426058211992	21.857892279632
2	2058	152.879214261029	21.797362715405
2	2071	153.729650094409	21.942849227409
2	2079	153.934624735213	50.204278610691
2	2081	154.185307348693	21.93164213813
2	2088	154.547144351121	50.78387165863
2	2101	155.232735391903	50.443608715754
2	2110	155.73845653023	50.158198653291
2	2126	156.515547189933	21.682768848584
2	2130	157.213281648956	21.952062278816
2	2137	158.087191516921	21.852093555301
2	2139	158.126225502547	50.639722549076
2	2144	158.762779951557	50.224215406566
2	2145	158.884730616097	21.865075957559
2	2147	158.995085929447	21.881675883299
2	2148	159.01746234222	21.879438652001
2	2150	159.880093423362	21.768597189497
2	2158	160.018058160265	21.783599359512
2	2174	161.109111316321	50.534111613716
2	2175	161.36222199211	21.93943403107
2	2179	161.783045181787	50.655435093327
2	2180	162.134019665309	50.441516152932
2	2181	162.27341749892	21.808785073059
2	2199	163.093679425728	21.740518287541
2	2209	163.472461088522	50.32320243008
2	2229	164.406760648517	50.36322218488
2	2231	164.790792730351	21.757349192083
2	2233	164.950917543788	50.377814533474
2	2234	165.390986682777	21.774082972204
2	2263	166.560750064216	21.759818617296
2	2290	167.663768647085	21.898337438405
2	2294	168.580063890167	50.632524302338
2	2299	168.613591218619	50.442162548502
2	2304	169.119068463514	50.416006695352
2	2317	169.408694129289	50.585375622867
2	2326	169.932857441875	21.57520944625
2	2328	170.096927015212	21.775978089868
2	2332	170.667800184004	21.817273420012
2	2378	172.808902376956	21.78414270583
2	2388	173.291347163407	50.198623867903
2	2389	173.375797303107	21.770748043998
2	2392	173.539413085407	21.893942248645
2	2393	173.595914531453	21.887420250434
2	2402	174.133807432294	50.314926456422
2	2419	174.825969304646	21.770847735091
2	2431	175.715800750511	21.907909528917
2	2453	176.231022084269	21.787027408309
2	2474	176.470458801741	21.83450622383
2	2475	176.609427029487	50.011829039718
2	2478	176.988336668021	50.243725923414
2	2479	177.502910459194	21.726433406319
2	2480	177.671357799434	50.596161030186
2	2490	178.162551438787	21.776312213054
2	2491	178.168075788101	50.811388707996
2	2555	182.088355834562	22.1789652676
2	2562	182.364835451503	50.493194789885
2	2563	182.369356440494	21.95370190645
2	2564	182.400848289979	21.551494285534
2	2582	184.332560864588	21.806272127151
2	2593	184.729381887165	21.794375495494
2	2602	184.940034776186	50.291039566834
2	2603	185.106343917438	21.894395300439
2	2605	185.670970731731	21.607712039792
2	2607	185.881827981247	21.9317426217
2	2608	186.063502850106	50.232837199945
2	2612	186.907702664494	50.240853696446
2	2614	187.255064640499	50.510981433417
2	2621	187.643058078414	50.914805564344
2	2623	187.819385522601	21.871262216457
2	2624	188.129702254516	22.021634735019
2	2627	188.671322401585	50.414906698922
2	2634	188.99549415342	21.818095575555
2	2644	190.870300793012	21.72977892559
2	2645	191.162203285817	21.896893896036
2	2652	191.640949666303	21.858473349451
2	2659	192.62049866395	21.725158535486
2	2660	193.305375284726	21.827990587935
2	2661	193.374010122256	21.969241483571
2	2662	194.042367936504	21.795121303899
2	2663	194.442679566757	21.676179209271
2	2664	194.459832413708	50.257000032082
2	2665	194.721902478537	21.924994127287
2	2666	194.863637803093	21.950437785076
2	2667	195.230907533871	49.971787170801
2	2674	196.02432701649	21.866746537608
2	2675	196.042201821097	21.914246094512
2	2677	196.48395203853	21.808448114577
2	2679	196.909099721905	21.77930822089
2	2683	197.623727133896	21.763813612625
2	2685	197.985904234058	21.873851036354
2	2686	198.04985419483	21.848629914858
2	2688	198.120108638952	21.81350821835
2	2689	198.235599521704	21.860560225719
2	2691	200.081352430384	21.766451374808
2	2692	200.529202527007	21.646933351765
2	2693	201.182052095935	21.869860717954
2	2696	203.304862681186	21.732270855829
2	2699	203.696780375836	50.554742643513
2	2701	203.863231310697	21.837226067008
2	2703	204.107838750783	21.779505369045
2	2705	204.847513959178	21.776044923135
2	2706	205.052563101997	21.806924844847
2	2731	216.185223420324	50.651365450557
2	2733	216.541208952265	49.986360657093
2	2735	217.308120203157	50.54863494884
2	2736	217.907122015362	50.594661392843
2	2739	218.993421612131	50.408860047363
2	2764	226.697002660353	50.292159556278
2	2772	228.646657731403	50.601296642109
2	2778	229.869674086422	50.60519463544
2	2781	232.350749494393	50.305491388958
2	2788	234.746078601939	50.411047597566
2	2790	235.135312975459	50.237097771747
2	2792	235.441585256393	50.713112874761
2	2795	237.703771323124	50.262336114773
2	2796	239.401557708834	50.543050349603
2	2799	240.617577143719	50.287956274601
2	2800	241.666724957719	50.406932601105
2	2801	242.286862296627	50.457869572032
2	2802	246.334137051594	50.59030754252

