version 2
run General-2-20191217-19:15:06-19440
attr configname General
attr datetime 20191217-19:15:06
attr experiment General
attr inifile omnetpp.ini
attr iterationvars ""
attr iterationvarsf ""
attr measurement ""
attr network my_PQ
attr processid 19440
attr repetition 2
attr replication #2
attr resultdir results
attr runnumber 2
attr seedset 2
param **.source.interArrivalTime "exponential(1 s)"
param **.source1.interArrivalTime "exponential(2 s)"
param **.source.numJobs 200
param **.source.jobType 0
param **.source1.numJobs 100
param **.source1.jobType 1
param **.delay.delay "3.5 s + normal(.3 s, .1 s)"
param **.delay1.delay "30.5 s + normal(.3 s, .1s)"
param **.delay2.delay "0.5 s +  normal(.3 s, .1s)"
param **.delay3.delay "0.5 s +  normal(.3 s, .1s)"
param **.server.serviceTime "exponential(.01 s)"
param **.server1.serviceTime "exponential(.01 s)"

vector 0 my_PQ.passiveQueue queueLength:vector ETV
attr interpolationmode sample-hold
attr title "queue length, vector"
vector 1 my_PQ.passiveQueue1 queueLength:vector ETV
attr interpolationmode sample-hold
attr title "queue length, vector"
vector 2 my_PQ.sink lifeTime:vector ETV
attr interpolationmode none
attr title "lifetime of arrived jobs, vector"
attr unit s
0	0	0	0
1	0	0	0
1	2005	143.640394143198	1
1	2006	143.649211648729	0
2	327	22.352998393716	21.780306404089
2	334	22.690911405277	21.717241992326
2	343	23.697062119	21.757725340907
2	351	24.307573756377	21.615038069774
2	366	26.031617054486	21.800404075119
2	367	26.131609488709	21.749884966182
2	368	26.196379144476	21.882169839603
2	369	26.304181093164	21.820943176946
2	376	27.1168131181	21.725388275242
2	377	27.37087696516	21.754127159734
2	384	28.113283755542	21.836686465459
2	393	29.15627064195	22.012162824882
2	394	29.633961981222	21.796690255504
2	395	30.00683468717	21.751599589856
2	408	30.600626429997	21.787568499003
2	430	32.183481337739	21.871814683341
2	437	32.223071258342	21.825743310673
2	473	34.045372319663	21.745238238033
2	474	34.150940977924	21.753722870507
2	481	34.447208467542	22.119495185827
2	529	37.681134666007	21.757825296161
2	542	37.919638494202	21.810932308939
2	560	38.609207112829	21.758022992419
2	563	38.793794215327	21.895854945399
2	565	39.218844081369	21.738663888356
2	573	39.657967659543	21.786903558789
2	579	40.944177358242	21.738473294121
2	581	41.404988518844	21.663301978714
2	588	42.243404801966	21.701035079151
2	610	42.837043657182	21.755528673591
2	621	43.844589682834	21.679898682189
2	659	46.11847827918	21.819659501369
2	666	46.939064253823	21.856417869268
2	692	49.546902353989	21.957611056722
2	697	50.290622914725	21.924386415198
2	712	50.971775170775	50.509902928529
2	714	51.082052392381	50.672716623828
2	724	51.804291743111	21.687918446459
2	726	52.014051137711	21.703228445879
2	727	52.259687375543	50.65481449705
2	729	52.840426307245	50.61480549751
2	730	52.855147795822	21.872418403525
2	741	54.023998841612	21.83889329429
2	743	54.136852739857	50.469874007486
2	753	55.06974446497	50.039392165991
2	754	55.092200208891	21.914571361443
2	761	55.303588445948	21.789642124632
2	765	55.694531043355	50.437962991396
2	775	56.1910606451	21.879724183314
2	777	56.482440421105	21.906984430141
2	780	56.596670312551	50.47907086351
2	781	56.720313628226	21.968756811323
2	782	56.765993187194	21.769299705543
2	804	57.259288629526	50.163258706766
2	808	57.802693658707	21.747510571033
2	810	57.929704732501	21.842775463844
2	827	59.224408376828	21.91796110034
2	835	59.47505568262	21.658869168087
2	836	59.53045912175	21.782191416633
2	845	60.093197785617	21.774235229455
2	846	60.118976264108	50.609978809597
2	848	60.274612263582	21.734969227564
2	853	61.241239540301	21.73495555579
2	897	64.414926748572	21.836893775345
2	898	64.579398821077	21.958010239327
2	902	65.088303983928	21.868665262338
2	928	65.865916304077	50.209867520116
2	930	66.393258812569	21.672574576242
2	938	67.04388830478	21.779498942762
2	939	67.068273299985	21.812368192596
2	948	68.038403171714	50.540666631946
2	958	68.915729192134	50.413365590991
2	959	68.920804471332	50.444646482325
2	964	69.384293486868	50.254182212735
2	967	69.676454691019	50.494577337498
2	968	69.911490116538	21.826153445403
2	981	70.622569575339	50.460203049685
2	982	70.833376259429	50.346300941098
2	984	70.972787922106	50.571105326492
2	1000	72.36708899655	21.679391024752
2	1007	72.959171322077	21.730469843175
2	1008	73.134035190969	50.503920314795
2	1010	73.44806013452	50.530310261047
2	1026	74.83821043935	21.762238616856
2	1062	76.022578412541	50.341992971216
2	1067	76.685357642169	21.916462192956
2	1068	76.922327665065	50.391718675033
2	1080	78.714735768525	21.925561312586
2	1081	78.911688886233	22.009135855623
2	1083	79.161721786286	22.009576989732
2	1100	80.249368897331	21.848925636015
2	1115	81.251518686279	21.866655835633
2	1118	81.611760495926	50.176300231821
2	1125	81.662671218999	21.798493393147
2	1139	82.247639077835	50.399047499543
2	1177	82.941315305205	50.037396580781
2	1179	83.152327605051	50.663162249346
2	1186	83.208771890286	21.822894880598
2	1200	84.115341187177	50.543954228448
2	1239	87.047726061073	21.725273190729
2	1241	87.412430262964	21.998542603068
2	1247	88.48896587406	21.825684095534
2	1269	89.410413778936	21.928533171153
2	1271	89.933853030556	21.729598149357
2	1290	91.749751374523	21.754461810435
2	1302	92.873652741677	50.369760544427
2	1318	93.899137166715	21.745913736524
2	1325	94.017547266497	21.940663326223
2	1332	94.408299157306	21.819336091668
2	1339	94.446037477578	50.52514649964
2	1343	95.01166714297	50.284220030679
2	1376	96.637457923649	21.812014071953
2	1383	96.940887039473	21.813364624254
2	1391	97.537406532611	21.835994643477
2	1408	98.855943905775	21.848892591691
2	1415	99.034177494818	50.529953694629
2	1434	101.051494426452	21.708340978733
2	1436	101.274709097448	50.347387501123
2	1445	102.040787678517	21.99845534476
2	1447	102.221691934651	21.767823667299
2	1467	103.455524253647	21.819660479037
2	1468	103.81323262299	21.73495201062
2	1469	104.081788882316	21.816352412193
2	1470	104.108238579996	21.616341747243
2	1484	104.466487146328	21.902384504359
2	1486	104.652015276631	21.857117841643
2	1487	105.026280753381	21.84051833441
2	1488	105.347113532787	21.832474361025
2	1493	105.674076652654	50.562724640912
2	1501	106.435802860314	21.752391106027
2	1502	106.439380485028	50.469532156359
2	1503	107.229313548267	21.805307957554
2	1522	109.292396880357	50.698837037299
2	1526	110.247233615328	21.737819685797
2	1528	111.037367476815	21.824630926424
2	1547	112.637012478309	21.929068450156
2	1560	113.459784945768	21.760262195092
2	1567	113.544880448994	21.741697265527
2	1574	114.485092674907	50.369229691001
2	1582	114.709709881704	50.428739137024
2	1590	115.407501506421	21.876589608434
2	1591	115.696655048902	21.770344752596
2	1592	115.770601049793	50.36683540117
2	1593	115.964201012047	50.345833209322
2	1595	116.167549242485	21.844643114954
2	1596	116.209806055865	21.785873669491
2	1607	117.388040800342	21.779156479844
2	1623	118.274813061137	21.81539698632
2	1645	120.458375948695	21.911969329377
2	1647	120.663675315001	21.759517363623
2	1678	122.4274141867	21.849250022578
2	1681	123.962388906988	22.005164043261
2	1682	124.066426908905	50.282630148844
2	1684	124.154916668908	21.731806852304
2	1693	125.410546911021	50.071793441271
2	1696	125.769068054192	50.489479789603
2	1700	126.029564608498	50.489239553064
2	1715	127.358002852549	21.752492177031
2	1753	130.842084368724	21.927690167878
2	1760	131.438259793417	50.188753465528
2	1788	132.439907360992	50.621557244909
2	1808	132.764190219227	50.360991449331
2	1819	133.238423013259	50.629030543602
2	1832	134.089691487627	21.921048377431
2	1833	134.155584847441	50.475039350962
2	1836	134.328275570257	21.700128344139
2	1838	134.536110396361	50.108999560356
2	1840	134.697933173022	21.836623601491
2	1857	135.334633032329	21.82708134582
2	1873	136.000500675979	50.596644910469
2	1883	136.544957653201	21.95081550528
2	1919	139.710593095048	50.536335931609
2	1927	140.047713168514	21.808990860246
2	1944	140.505049755999	50.521581774943
2	1978	142.130526402452	21.777465016356
2	1994	143.119812937603	22.024138150666
2	1995	143.215182549816	50.150044303629
2	2011	143.816632203179	21.877041632306
2	2035	146.066677541339	50.50365503861
2	2037	146.478877970781	50.200756856329
2	2039	147.080602769677	50.230489897073
2	2040	147.371528245068	50.329194251502
2	2056	147.972125966543	50.432095631898
2	2075	149.503622490982	50.412876279723
2	2076	150.234920265991	21.738455513049
2	2077	150.30082901931	21.856770968986
2	2089	150.727270381655	21.775634543339
2	2092	150.970515078477	21.708829074211
2	2113	152.744100897768	50.370101668963
2	2114	152.827146503715	21.721137680801
2	2118	153.453144134904	21.628148212268
2	2119	153.453354106774	21.812344872621
2	2139	154.142267186064	21.765265392255
2	2141	154.365402278322	21.913326310506
2	2142	154.393299453674	21.789538188782
2	2145	154.549129184262	21.679754714055
2	2146	154.600662957989	50.385244147834
2	2147	154.682230479932	50.410538783301
2	2159	155.834412136824	21.783565615763
2	2166	156.542937817492	21.786355539215
2	2167	157.246728343093	21.867811849329
2	2168	157.473189326623	21.724082271047
2	2181	158.684981468726	50.460951920026
2	2214	160.584162609525	21.76262485413
2	2215	160.851326364768	21.809022686906
2	2217	161.28523088643	21.627718252661
2	2225	161.546907136145	21.798095088043
2	2234	162.179803535749	21.790686424314
2	2238	162.627942979016	21.873076700009
2	2241	162.77290101646	21.855365325146
2	2242	162.933923513346	21.753105993543
2	2243	163.234989126252	21.464118423213
2	2251	163.803071935533	21.643029963492
2	2259	164.185777768894	21.753567550032
2	2262	164.47489189604	50.584230720509
2	2276	165.007826768039	50.184277101129
2	2278	165.508381647347	21.867987504149
2	2279	165.54203413823	21.907227892667
2	2310	166.817832072122	21.808774200213
2	2318	167.224905537117	50.435486989599
2	2325	168.42879632144	50.497191479317
2	2349	169.158958175135	21.607473681058
2	2360	169.922069522375	21.955464741081
2	2361	170.037717130689	21.713177025935
2	2373	171.233860449562	21.763403029133
2	2390	172.166486247935	21.818530835425
2	2392	172.426102301884	50.221498204693
2	2393	172.430794773387	50.635767248093
2	2394	172.486317916701	21.761676952667
2	2408	172.902501080336	21.771179797781
2	2418	173.510903259456	21.900632408478
2	2430	175.38325300601	50.304058265665
2	2432	175.69172926555	21.819498324952
2	2434	175.920032750063	21.931708485937
2	2483	177.258539746209	21.89793602147
2	2485	177.447118842242	50.243892140046
2	2486	177.992746562515	21.838963365732
2	2528	179.856347186175	21.752209673933
2	2531	180.625300387721	21.936688748819
2	2534	180.737745111972	21.828171817439
2	2559	182.203959051264	21.772618194196
2	2563	182.446760322949	21.894794224272
2	2564	182.538022621034	50.439678391319
2	2567	183.03232028157	50.495124471597
2	2568	183.187996119368	21.8719996273
2	2570	183.639402375429	21.739498582779
2	2576	185.651868960309	50.643320062088
2	2589	186.512037973363	21.90929135222
2	2590	186.64033201489	50.345714494341
2	2591	186.677947947963	21.816491739518
2	2604	187.867961630897	21.883044132367
2	2606	188.23416730618	50.572117542732
2	2607	188.468783654405	21.736271172725
2	2608	188.615203983825	21.994058766181
2	2610	188.782696385394	21.826794894681
2	2617	189.609624990446	21.705015666007
2	2624	190.401887001135	21.843997849407
2	2626	190.976993872665	21.967870001845
2	2627	191.074037618245	50.612119322246
2	2629	191.318713904162	21.59730060076
2	2630	193.299974930425	21.845746921488
2	2631	193.485479592701	21.904613020709
2	2633	194.292646070152	21.714789932089
2	2634	194.740798831482	21.883822879596
2	2635	194.779900670526	50.152346473239
2	2636	195.083181534481	21.885560962366
2	2639	196.804307724612	21.824183242943
2	2642	198.084080052108	21.807638801398
2	2643	198.121927366139	21.857610517069
2	2644	198.635410289525	21.706947965305
2	2651	199.149394718319	21.962060375813
2	2654	200.067309062523	21.874200160947
2	2655	200.251726197685	21.811761301087
2	2662	200.385731805384	21.643287311951
2	2664	200.620351179588	21.703300410563
2	2665	200.638363428987	21.673036199157
2	2668	201.604603390424	21.981633373812
2	2677	202.889333139114	21.763070877485
2	2678	202.958978101334	21.909230856304
2	2693	203.982852141608	50.293755703297
2	2713	213.506605706015	50.241454448214
2	2717	214.309657399203	50.202968073035
2	2720	216.139470117991	50.252608390658
2	2727	219.095147566007	50.038812975651
2	2734	220.877553621185	50.294017143732
2	2749	226.61600782291	50.378958863433
2	2750	226.752843123591	50.277020726553
2	2752	227.276369674966	50.658226369106
2	2763	231.855897933963	50.568664775066
2	2773	236.187283901869	50.241537089567
2	2774	236.674780393481	50.331178839571
2	2777	237.358761682742	50.226433648747
2	2779	238.017617931569	50.391770031898
2	2781	238.991401132111	50.204443377065
2	2785	240.424561262752	50.373301137403
2	2798	249.453254570064	50.320383956632
2	2799	250.632645450589	50.367792270043
2	2800	252.022216449573	50.383478317481
2	2801	253.355411353696	50.289888240503
2	2802	253.577953695571	50.547009315022

