version 2
run General-1-20191217-19:14:53-7768
attr configname General
attr datetime 20191217-19:14:53
attr experiment General
attr inifile omnetpp.ini
attr iterationvars ""
attr iterationvarsf ""
attr measurement ""
attr network my_PQ
attr processid 7768
attr repetition 1
attr replication #1
attr resultdir results
attr runnumber 1
attr seedset 1
param **.source.interArrivalTime "exponential(1 s)"
param **.source1.interArrivalTime "exponential(2 s)"
param **.source.numJobs 200
param **.source.jobType 0
param **.source1.numJobs 100
param **.source1.jobType 1
param **.delay.delay "3.5 s + normal(.3 s, .1 s)"
param **.delay1.delay "30.5 s + normal(.3 s, .1s)"
param **.delay2.delay "0.5 s +  normal(.3 s, .1s)"
param **.delay3.delay "0.5 s +  normal(.3 s, .1s)"
param **.server.serviceTime "exponential(.01 s)"
param **.server1.serviceTime "exponential(.01 s)"

vector 0 my_PQ.passiveQueue queueLength:vector ETV
attr interpolationmode sample-hold
attr title "queue length, vector"
vector 1 my_PQ.passiveQueue1 queueLength:vector ETV
attr interpolationmode sample-hold
attr title "queue length, vector"
vector 2 my_PQ.sink lifeTime:vector ETV
attr interpolationmode none
attr title "lifetime of arrived jobs, vector"
attr unit s
0	0	0	0
1	0	0	0
1	883	82.138586440678	1
1	884	82.158397380525	0
1	1544	127.412932523866	1
1	1545	127.413204555312	0
1	1965	159.083855335093	1
1	1966	159.108056788962	0
1	2313	179.120296021543	1
1	2314	179.126641678672	0
1	2571	197.056957872382	1
1	2572	197.058651695955	0
2	180	22.367618925351	21.828013098839
2	206	23.688140365013	21.874409300341
2	207	23.929865865171	21.756122052643
2	220	24.174115852487	21.903488167456
2	221	24.472972392945	21.778368229107
2	235	25.212588106329	21.744024172215
2	250	26.404033823697	21.779590178975
2	277	28.453473446317	21.724332505318
2	293	29.695884559547	21.856663299998
2	300	30.434183651927	21.776955080998
2	301	30.766628091676	21.888626303862
2	317	34.166117697889	21.837888822789
2	330	36.175408946549	21.597124202235
2	345	36.889310228897	21.764386792496
2	352	37.71988631906	21.833182860104
2	359	38.089884552079	21.824091618718
2	379	39.715431869572	21.650095207212
2	383	41.296528186694	21.844319746977
2	387	42.995773659513	21.986343348168
2	389	43.4279944178	21.824549745471
2	390	43.625942137597	21.883202559304
2	403	44.635724057034	21.757182557617
2	412	45.97631339737	21.894604230886
2	425	46.901418050683	22.052061389843
2	444	47.421341023612	21.848606592816
2	445	47.42759339339	21.706968162324
2	453	49.09301395842	21.725294167103
2	463	50.427527435917	21.765187817103
2	475	50.983073995034	21.891644889129
2	494	53.165826746004	21.812126745058
2	511	54.05923969469	21.733483260394
2	563	57.065197447073	21.753871723512
2	570	58.018637193637	21.843637838468
2	574	58.25019777529	21.804665816679
2	599	59.045151761808	21.747055962821
2	610	59.873264789836	21.826386247325
2	616	60.293081319099	21.804172599671
2	623	61.205511944003	21.740137459113
2	639	62.416156583933	50.67070686197
2	662	64.488992341214	50.306459855852
2	664	64.581067026843	50.478210299792
2	698	67.238574914426	21.850197364004
2	705	68.58272155291	21.785955138212
2	706	68.706681767287	21.77721679898
2	707	68.709334617077	21.75330903062
2	708	68.765433738013	50.37309528339
2	710	69.165565951005	21.926897480872
2	719	69.821210674261	21.808551351976
2	749	71.436512180128	21.578497065474
2	751	71.767012215077	50.616706238168
2	752	72.406429474619	50.560936194683
2	754	72.551390114779	21.812067004455
2	755	72.677054600531	50.214303703913
2	762	73.050715784774	50.16093154399
2	763	73.231422317352	50.658993233285
2	764	73.283329709294	21.720681892938
2	783	74.55080488533	50.591958577778
2	792	74.978825902125	21.770567814544
2	794	75.216517837138	50.188188627147
2	802	75.869349515622	21.848619490017
2	803	75.916848370939	21.834330496412
2	804	76.091649889793	21.963557207811
2	805	76.205422051928	21.82152142549
2	813	76.970370623775	50.175579657541
2	814	76.988728228643	21.784490072274
2	816	77.216623136716	50.060336513645
2	831	78.520827459498	50.509837496648
2	847	80.350386381357	50.384806971851
2	854	80.426866723121	21.802971968021
2	855	80.556780324631	21.689750169204
2	862	80.639934285044	21.84549863437
2	867	81.633478901695	21.834207835247
2	870	81.957792252129	21.680257655878
2	894	83.573623851104	21.92828516773
2	895	83.886264649147	21.778756844147
2	904	85.365937642028	21.861052047604
2	926	86.931543729786	21.793160262138
2	928	87.117803640035	50.456529022012
2	944	88.329316399787	21.86265852106
2	967	89.119412297032	50.537940212396
2	991	91.402357872686	21.936439124766
2	1005	92.0192716643	21.887839054354
2	1014	92.691528758374	21.76259257168
2	1053	94.613364244561	50.7293868167
2	1054	94.6194249233	50.44045169486
2	1064	95.876712463297	21.643818097493
2	1066	96.031664686632	21.658361798828
2	1079	96.629663096625	21.833642138448
2	1088	96.900399614658	50.334581325558
2	1089	97.401643351562	21.733314624527
2	1119	99.847031660265	21.820686395724
2	1145	100.768394654129	21.827980416938
2	1173	101.952236571474	50.257881043997
2	1175	102.52760085938	21.940251781189
2	1192	103.832971359556	21.694787022795
2	1199	104.195956357414	22.057369916736
2	1204	106.33619048094	50.658360304596
2	1211	106.657345639966	50.397939691428
2	1214	107.054015808924	50.359716541043
2	1222	107.669405595727	21.768975645918
2	1232	108.177791016881	21.941082023736
2	1243	109.300662637488	21.657121079555
2	1247	109.937673738959	21.904519259416
2	1255	110.186779032963	21.672191454792
2	1263	110.697997897676	21.801587588231
2	1278	112.018243274915	21.989247399845
2	1282	113.24015737902	21.613460409906
2	1284	113.808567066454	21.891027431154
2	1285	114.009270246643	50.300522112341
2	1287	114.354638653811	21.686927108065
2	1309	115.776790973844	21.788038839224
2	1310	115.852237217751	50.103179449595
2	1317	116.061994464017	21.719200188968
2	1318	116.066633146524	21.924258644912
2	1320	116.136180157936	22.076780915454
2	1356	118.269259077577	21.84733000263
2	1357	118.438488927016	21.593177102549
2	1403	121.05769571329	21.731801255733
2	1413	121.719452263145	50.594720727585
2	1414	121.734038420495	50.339202884646
2	1433	122.286290629232	21.656287432976
2	1443	122.957012969441	50.153105176255
2	1446	123.362106561875	21.94681870297
2	1447	123.469414344662	21.898004067773
2	1454	123.627202158091	21.804699963169
2	1485	125.030997984874	21.67000070609
2	1513	126.860216332196	50.546045820923
2	1561	128.174767063041	21.821910190988
2	1562	128.2682012258	50.373186143965
2	1564	128.892032093134	50.324059746021
2	1567	129.195795907596	21.789383283996
2	1580	130.541165218803	50.172941647911
2	1583	130.841720393504	21.827791696843
2	1590	131.527147953946	21.512722349217
2	1592	132.206299478267	50.113252560564
2	1604	133.416317939107	21.875188505202
2	1629	134.934930422154	50.568826253826
2	1661	136.607666923987	50.53158768493
2	1664	137.018978577637	21.799301538906
2	1668	137.47447931986	21.815203433024
2	1685	138.819931291987	21.791661769664
2	1690	139.399515320159	50.550673238665
2	1691	139.426342518477	21.814848209215
2	1700	139.796457223614	21.956924620844
2	1701	139.970753220151	21.827174611166
2	1710	140.508704199477	21.754525059089
2	1711	140.603832641194	50.629884897285
2	1718	140.805890261644	21.81350448635
2	1720	141.191192888946	21.845937228976
2	1729	141.553181328357	50.466537776448
2	1731	141.672073738328	21.847142022063
2	1734	142.32001853954	21.779404678768
2	1758	143.457170419103	50.196844299221
2	1767	143.908069820067	21.738014829353
2	1770	144.026105489209	21.65563355522
2	1771	144.207879155244	21.952839131419
2	1788	145.144267068154	50.20130541314
2	1809	145.945509211228	21.950672324749
2	1817	147.302817147144	50.674265545267
2	1821	147.622503994133	21.890339768034
2	1824	148.142669179573	21.908225245335
2	1829	148.916474819289	22.031804283201
2	1831	148.987441352064	50.563402830084
2	1836	149.057391675635	21.644459151769
2	1839	149.306575688774	21.907084031017
2	1840	149.346631621643	50.328156173101
2	1841	149.356564257639	21.946654258516
2	1849	149.997183951109	50.549937637547
2	1857	150.394902361925	50.377528883161
2	1858	151.04526381586	50.495615631594
2	1861	152.247944739951	21.81511460668
2	1863	152.703836103293	50.85730107529
2	1864	152.831480275467	50.200748180062
2	1883	154.430043211201	50.253022101717
2	1923	156.85263637849	21.819108383531
2	1932	157.606257891619	21.809903863698
2	1956	158.488707599955	50.461807116097
2	1983	160.474701969051	21.883325811899
2	1992	161.063952868111	50.405540138289
2	2005	161.603452904611	50.230980625468
2	2006	161.644343177866	21.881048693457
2	2008	161.99926462673	21.862811205894
2	2054	164.473198352053	21.854963181582
2	2057	164.805085444373	21.928973271669
2	2061	164.990707197981	21.922506879002
2	2064	165.4574983615	21.855568084393
2	2094	166.531659213997	50.527675321294
2	2095	166.707779673991	21.895601843691
2	2097	166.939932545596	21.867929450065
2	2105	167.192987501065	50.275876984712
2	2106	167.582376578286	21.822711055486
2	2144	169.749836238453	50.484272173312
2	2167	171.336299321874	50.270724854559
2	2169	171.356448346303	21.867536735413
2	2208	173.840574652751	50.303472857994
2	2221	174.735406669837	50.359823411878
2	2222	174.938538358081	21.74664709501
2	2223	175.139545284897	50.417334256512
2	2224	175.262411330772	50.577205830463
2	2232	175.959910450229	21.663189297049
2	2235	176.129827465057	50.180482428404
2	2257	176.760479405605	21.786343060661
2	2278	177.321721652292	21.736193366001
2	2280	177.544118778292	50.314805251788
2	2282	177.593144200192	21.996667462675
2	2283	177.728364182717	21.746294328641
2	2285	177.908069251493	50.754286240772
2	2287	178.110294771272	21.879463218916
2	2288	178.150109779448	50.652266926229
2	2327	179.55179658971	21.914910891913
2	2330	179.992440306064	21.653327996159
2	2337	180.825627112621	21.741771777528
2	2338	180.848222108805	21.777050638864
2	2353	182.024629945268	21.824599466058
2	2365	182.843587496104	50.409071617221
2	2370	182.965918901341	21.732049083343
2	2372	183.841005598426	50.381923917741
2	2373	184.047647023965	50.20762359555
2	2374	184.09700975732	21.999205430273
2	2382	184.335303816497	21.802971679827
2	2383	184.447899827844	21.698608115664
2	2392	184.971272882421	50.517390605598
2	2405	185.686393324054	50.488680777201
2	2410	186.122006521545	21.886382246481
2	2418	186.594773519744	50.483891581482
2	2438	187.304829260406	21.747780071639
2	2439	187.60137868826	21.822500176637
2	2447	187.997326894792	21.745107031743
2	2449	188.20167393561	21.831885599628
2	2471	188.962785886074	50.328144506305
2	2480	189.595616835539	21.617507277837
2	2489	190.105029484819	21.763769799273
2	2502	190.756975895254	21.765568532806
2	2511	190.952979119634	50.338952689002
2	2514	191.798383334709	50.256174572026
2	2537	194.617662786678	21.894737682894
2	2556	195.63111375556	50.368871824292
2	2557	195.846610391621	50.200302992275
2	2578	197.453547998975	21.824576938527
2	2580	198.021003435417	21.71058396734
2	2581	198.275126472943	21.885459436887
2	2583	198.373095681053	21.680227373277
2	2585	198.69209082613	21.884860133583
2	2587	198.708849049982	21.788915536861
2	2588	198.852066603867	21.737138172338
2	2590	199.290635917916	50.249591505158
2	2592	200.565526994877	21.903589311964
2	2594	200.842324330476	21.742001551887
2	2596	200.878664904694	21.758368883151
2	2597	200.906846587882	22.000775081815
2	2598	200.939482482994	50.696451759981
2	2620	202.900790352999	21.812687214773
2	2621	203.243148469144	21.829197391672
2	2671	205.882259508417	21.751682379298
2	2673	207.370450945465	21.768794564605
2	2677	207.883270046075	50.16541775269
2	2680	208.144189641106	50.692994564487
2	2683	208.837358008181	21.744505986204
2	2685	208.934381127816	21.692617537578
2	2689	209.278270885633	21.644740138779
2	2692	209.975504118638	21.754775739996
2	2696	210.528081333295	21.751620352016
2	2699	211.001797496901	50.343288872987
2	2700	211.041659687415	21.63550354335
2	2707	211.939882665517	21.940082533268
2	2710	212.484049918412	21.873666987517
2	2711	212.646926906285	21.895163596349
2	2715	214.840381350287	50.633252701694
2	2716	214.940599635566	21.788506198188
2	2724	216.694181308568	21.69121616868
2	2728	217.274015655926	21.98118052989
2	2730	217.352546757574	50.229540800336
2	2734	217.963196073234	21.89326473669
2	2735	218.165122412781	50.576673762972
2	2739	218.777488927037	21.720531054655
2	2741	218.971514911917	21.92252155008
2	2745	220.51012748384	50.436843858948
2	2748	221.818861298944	50.709870804183
2	2749	222.202097310185	50.619807134274
2	2755	223.455899912263	21.857679667359
2	2758	223.860665550482	50.460106069721
2	2759	223.875626011062	21.697889338937
2	2761	224.374981893387	50.858865350952
2	2762	224.497500168073	50.554378226153
2	2765	224.855638388068	50.19893498867
2	2767	225.518835118227	21.718121690204
2	2768	225.63651816709	21.69154329336
2	2771	226.310611846595	21.689258115674
2	2773	227.098211051162	21.759207315927
2	2774	227.191515172406	22.062679160085
2	2775	227.484578765435	21.797129433939
2	2781	229.662691511906	50.305984671343
2	2790	232.401161247644	50.200636749848
2	2794	235.325066528561	50.669675337443
2	2795	236.113809359149	50.430537474603
2	2796	236.531393236975	50.301047616351
2	2797	237.425443696513	50.475748535967
2	2800	239.102537946432	50.585970517307
2	2801	241.312072436034	50.547819543292
2	2802	244.458988921409	50.783236343133

