version 2
run General-4-20200409-15:42:38-5100
attr configname General
attr datetime 20200409-15:42:38
attr experiment General
attr inifile omnetpp.ini
attr iterationvars ""
attr iterationvarsf ""
attr measurement ""
attr network my_PQ
attr processid 5100
attr repetition 4
attr replication #4
attr resultdir results
attr runnumber 4
attr seedset 4
param **.source.interArrivalTime "exponential(1 s)"
param **.source1.interArrivalTime "exponential(2 s)"
param **.source.numJobs 200
param **.source.jobType 0
param **.source1.numJobs 100
param **.source1.jobType 1
param **.delay.delay "3.5 s + normal(.3 s, .1 s)"
param **.delay1.delay "30.5 s + normal(.3 s, .1s)"
param **.delay2.delay "0.5 s +  normal(.3 s, .1s)"
param **.delay3.delay "0.5 s +  normal(.3 s, .1s)"
param **.server.serviceTime "exponential(.01 s)"
param **.server1.serviceTime "exponential(.01 s)"

vector 0 my_PQ.passiveQueue queueLength:vector ETV
attr interpolationmode sample-hold
attr title "queue length, vector"
vector 1 my_PQ.passiveQueue1 queueLength:vector ETV
attr interpolationmode sample-hold
attr title "queue length, vector"
vector 2 my_PQ.sink lifeTime:vector ETV
attr interpolationmode none
attr title "lifetime of arrived jobs, vector"
attr unit s
0	0	0	0
1	0	0	0
1	1867	135.26679311753	1
1	1868	135.268323848926	0
1	2628	194.540068778892	1
1	2629	194.555722563794	0
2	235	25.379341096157	21.967188776973
2	238	25.887392540679	21.682864236202
2	247	27.139111906139	21.679962927979
2	260	27.442155259749	21.762752212033
2	302	31.743499481736	21.965703284959
2	329	34.501664911705	21.748383931452
2	352	36.626903441241	21.861545714377
2	353	36.753501025713	21.91023733772
2	354	36.9371201831	21.909967089336
2	356	37.36032450554	21.808172728442
2	357	37.52043963406	21.853781885958
2	366	38.264062882797	21.809501782359
2	375	39.206696765172	21.73710067929
2	397	40.431279770431	21.912418224491
2	404	41.247541902067	21.750737291191
2	405	41.404114212267	21.710109212026
2	416	42.190774056522	21.798542877022
2	419	42.677286883584	21.992455352795
2	422	43.571162057319	21.905685656526
2	430	43.815994377124	21.938009660545
2	432	44.202814750848	21.759509374759
2	445	44.760891078403	21.798685545962
2	454	45.733629777301	21.834006418259
2	455	45.741592149077	21.930430249472
2	464	46.094832273231	21.913570262845
2	493	48.266836945924	21.835095520614
2	499	49.123342933548	21.766362080668
2	516	50.079298203974	21.768940238603
2	525	51.614593435199	21.8442599451
2	550	53.4669349155	21.840578673755
2	560	54.887328414129	50.269690352849
2	579	55.585117597072	50.480558687689
2	580	55.971781781046	50.854723379609
2	581	56.025592903258	21.785759728462
2	582	56.137749592584	21.688397436713
2	583	56.530177888874	50.271998204149
2	584	56.803571974019	21.855353773141
2	585	57.417124839646	21.894846017881
2	588	58.135245353953	22.081134795263
2	591	58.746013627984	50.668538537928
2	603	59.445507918977	50.39065040742
2	610	60.185825102376	21.804612769308
2	637	61.600781760354	21.899067615882
2	663	63.357930047147	21.907384476682
2	718	65.513392288945	50.181500755644
2	738	66.124667248923	21.795327546354
2	745	66.204891002702	21.834634382806
2	751	66.828500407254	21.674536437453
2	769	67.781856210524	21.86238380603
2	772	68.300505546981	21.798817662922
2	779	69.629899293923	21.720653270989
2	780	69.76145663794	21.956824476977
2	781	69.972577999987	21.723602882544
2	796	71.164570922034	50.285209913146
2	800	71.558434019478	21.788347188181
2	802	71.776055508653	21.806340414416
2	815	72.306139409284	50.122391609805
2	816	72.45437935377	50.673506735865
2	846	73.92877733358	50.666660588638
2	889	76.367123146736	21.709202175892
2	896	76.839263573649	21.725105951561
2	905	77.314561602437	21.802427549129
2	907	77.427657829187	50.218772518974
2	955	79.21599140292	50.221064596067
2	956	79.367794271874	50.605526418668
2	976	80.62627560974	50.185563579814
2	978	80.916541564022	21.941096504218
2	1013	82.97409476743	21.842777449408
2	1021	83.317007701847	21.811425883717
2	1022	83.676376881544	21.70024705389
2	1038	84.261389477475	50.497694218192
2	1039	84.294903200222	21.729760596981
2	1041	84.447068238596	50.361328547356
2	1052	85.513723606564	22.002314574197
2	1054	85.764754428315	21.844099035818
2	1055	85.974061350733	21.848582029828
2	1056	86.436472224548	21.905343208759
2	1057	86.482659787496	21.717206137503
2	1058	86.489584139183	21.777990104419
2	1072	86.993404055004	21.813608657996
2	1080	87.252575962173	21.757569035048
2	1094	88.012954435271	21.907413446163
2	1097	88.044285527823	21.879837151246
2	1100	88.471151721041	50.368937681103
2	1110	89.02226262346	21.942029662926
2	1132	90.39170607496	50.335451861105
2	1133	90.760626601524	50.583002946669
2	1135	90.943946519618	50.501511106807
2	1161	92.658966995461	21.852971365418
2	1176	93.831406099831	21.946911835724
2	1190	94.382973211185	50.776665488543
2	1212	95.697684457194	21.802347525144
2	1213	95.71566307121	21.677792050313
2	1215	95.907199700626	21.69909512049
2	1216	96.030146172997	21.71165151544
2	1252	98.305079484823	21.906644385764
2	1258	99.35562055257	21.926301361824
2	1260	99.957925760179	21.939175874664
2	1267	100.251332106427	21.793555214396
2	1270	100.57175849782	21.832848842406
2	1273	101.30828701704	21.708134089999
2	1292	102.07748812067	50.522327484207
2	1293	102.383799651158	50.539159398502
2	1294	102.4130534723	50.382487053565
2	1303	103.407241059963	22.011459839895
2	1305	103.413509402363	21.886232849489
2	1324	104.580999972545	21.923411978303
2	1328	105.13775695047	21.835880660479
2	1331	105.233896783147	50.112916083394
2	1341	105.860787307116	21.651230222632
2	1342	105.938313631605	21.788214768776
2	1357	106.610136171685	21.752686557219
2	1389	108.819870157753	21.937707045877
2	1390	109.28451826483	21.891076595241
2	1419	110.502756037715	21.881049404587
2	1432	111.145807872402	50.549121661675
2	1447	111.487339273363	21.793893155394
2	1448	111.500316859223	50.574151149052
2	1455	111.669132673291	21.61210825415
2	1471	112.244826328736	50.510243330607
2	1493	113.744300469006	21.801911162686
2	1494	113.795000443644	50.516981600025
2	1520	115.076207835246	21.80760584993
2	1531	115.97129289572	21.877468945755
2	1535	116.244257860004	21.811769674043
2	1536	116.385682603615	50.455239335148
2	1562	117.391259505702	50.530915524385
2	1564	117.43459910669	21.807918667271
2	1592	118.509189438846	21.835517906416
2	1604	119.083857695583	21.810879475373
2	1666	122.450180233322	50.404359037337
2	1669	122.942691669456	50.241379541522
2	1670	123.06484374702	21.745632633963
2	1672	123.394315317573	21.685520788879
2	1674	123.48682388314	50.165247018925
2	1676	123.625403591578	50.391518453008
2	1691	124.685266023063	50.329296544696
2	1695	124.890873194904	50.499525309819
2	1702	124.922698870016	21.58683184312
2	1714	125.923180372665	50.562336371936
2	1723	126.051057465979	21.866739406087
2	1732	127.151492449883	49.987114347946
2	1735	127.991060807811	21.748013358032
2	1737	128.215415098506	50.620897124128
2	1754	128.897898558093	50.141602988274
2	1755	128.91220032461	21.970660464838
2	1759	130.365670822241	50.556022114935
2	1763	130.566782435278	21.961013662812
2	1765	130.738257559726	50.506845774642
2	1801	131.829914361291	21.632389343059
2	1802	131.843221584914	21.775392627323
2	1805	132.052261770941	22.054649467762
2	1806	132.10820354511	50.759017221428
2	1829	132.967701413542	21.716055363576
2	1830	133.136948848661	21.756410613867
2	1845	134.135685996413	21.97937596408
2	1854	134.989938716535	21.819581477566
2	1876	136.287065908022	21.669999631275
2	1881	136.631510494474	21.74999118085
2	1886	137.101632351442	21.909636743423
2	1890	137.362366805753	50.388306785519
2	1892	137.58785047682	50.359300829508
2	1901	138.183656425571	21.763577605133
2	1904	138.712644127171	50.70170379257
2	1915	139.13135158356	21.974966827288
2	1918	139.345776571561	21.995790704106
2	1933	140.526930146286	50.86133572892
2	1934	140.782277999235	21.824944301919
2	1936	141.264333801784	21.906877499436
2	1940	141.655687062571	50.470541840856
2	1941	141.785743419289	21.865208951367
2	1956	142.376308865187	21.773496764736
2	1965	142.911051010268	21.845847625217
2	1969	143.269610608279	50.38008839525
2	1970	143.280951861928	50.744914109356
2	1973	143.47055379851	21.793305303717
2	1982	143.989056054626	21.690912853327
2	1986	144.496298384285	50.532292117352
2	1995	145.277718352364	50.178325161402
2	2005	146.460673715676	21.883431575766
2	2012	146.692049321765	21.778135446843
2	2016	147.351808365184	50.654744441191
2	2031	148.1296939495	21.690959704615
2	2036	148.571087508722	50.567370974962
2	2047	150.057199767229	50.09107156913
2	2048	150.189159691269	21.633336578352
2	2080	151.802966086717	50.440299255827
2	2095	152.779887071056	21.829601909749
2	2096	152.82260253183	21.807510213915
2	2097	152.859195129903	21.714934673772
2	2110	153.804366658004	50.314692408734
2	2111	154.072512056783	21.804688467878
2	2131	154.337293753056	21.780539052567
2	2133	154.76468235318	21.623527862136
2	2134	155.050994695286	21.838239687233
2	2150	155.898763414828	50.364841486479
2	2171	156.879013725891	50.663334143555
2	2172	156.902096506223	21.829910749284
2	2173	157.058256629979	21.791463512449
2	2174	157.167338611171	21.901452580042
2	2182	157.284145969051	50.388833355283
2	2221	158.510602986066	50.083406103703
2	2249	160.733495379879	21.711810858133
2	2258	161.221734002672	50.430476554416
2	2276	161.987619919052	50.383723851589
2	2291	162.660150515829	50.532833429678
2	2299	163.602110439991	50.46489178489
2	2307	164.117264598013	50.609136468847
2	2317	164.731200856847	21.878085011473
2	2327	165.303081396244	21.80757976422
2	2328	165.39441831642	50.584771325652
2	2337	166.358905077259	21.849910306105
2	2347	167.578407666511	21.795036296346
2	2349	167.720776664565	50.15826830739
2	2352	168.290077293521	21.654861444331
2	2367	168.631703719542	50.297727397641
2	2370	168.782142337051	50.51105840127
2	2386	169.597052357768	21.763090002078
2	2388	169.689834598155	21.81484413638
2	2397	170.344820276861	50.301863215925
2	2402	171.225161979109	50.495123692019
2	2429	173.568196123914	21.876666592326
2	2430	173.639495861587	21.76733009534
2	2432	174.178985043275	21.831183830829
2	2438	175.500647042983	21.762960065158
2	2439	175.505819981748	21.790319352202
2	2449	175.806919986215	50.40029748484
2	2451	175.900813820757	21.772719601458
2	2453	176.491773433162	50.567823197055
2	2471	178.629542938931	50.385047404008
2	2472	178.817822218287	21.586380025451
2	2491	181.142692884727	50.35869498326
2	2492	181.184181667592	50.31779361935
2	2493	181.371984609021	21.757802020778
2	2502	182.240025386367	21.851439834641
2	2506	182.82477485337	50.202078864321
2	2507	183.070232182767	21.811360794135
2	2517	183.83828524974	21.928954246001
2	2520	184.461273278388	21.902411471531
2	2528	184.584101651528	21.975105799383
2	2535	185.937583711935	21.905131215351
2	2542	186.132986099407	21.899463978429
2	2544	186.637773768823	21.895167400135
2	2548	187.554081116536	21.781502533276
2	2551	188.447863815744	50.399927507667
2	2557	188.775039678715	21.695083471789
2	2581	190.04581723251	21.743685648365
2	2582	190.187661665105	21.701450588041
2	2589	190.412458762401	50.446012291448
2	2591	190.471843751332	50.666098987951
2	2595	191.079700024448	21.82881868773
2	2596	191.150841938849	21.741692097234
2	2601	192.047132686265	21.785769784111
2	2602	192.425385863068	50.33551507404
2	2603	192.662173058216	50.331270049587
2	2608	193.661904088456	21.870926277971
2	2611	193.800850545668	21.827370571243
2	2612	193.84195295119	21.912639617851
2	2663	197.421741325384	21.669112156164
2	2685	198.782136256942	21.77229589942
2	2714	199.719583245203	21.725850882637
2	2720	201.153976626142	21.823691324415
2	2746	202.06503987386	50.301516300886
2	2747	202.170347313965	50.490871735806
2	2749	202.381147978688	21.872299284921
2	2761	203.781624982946	21.841927358871
2	2763	204.373423565051	50.287028857431
2	2766	204.696817900231	50.429909749712
2	2767	204.942297281348	21.645892056922
2	2770	205.521918863979	50.368356476844
2	2773	206.460346519899	21.915557086393
2	2774	207.019833994338	50.592936862273
2	2775	207.353548475637	50.629329310196
2	2776	207.779301160105	21.810670026414
2	2777	207.809768431686	50.359972811109
2	2778	208.29701775551	50.511394284798
2	2779	208.39537732876	50.341578535961
2	2780	208.531112159549	50.397394496258
2	2781	208.668690931508	50.568255777455
2	2782	210.061454097788	50.299872654919
2	2783	210.426853729872	50.570804426037
2	2784	210.790965632192	21.698372766995
2	2785	211.264043285826	50.483658161238
2	2786	211.42994584841	21.894940687671
2	2787	211.718561052243	21.811357957461
2	2788	211.932790445311	21.624181350828
2	2789	215.942365025231	21.904105004078
2	2790	216.283867025394	21.746848873894
2	2791	216.354264621629	21.814195842737
2	2792	217.266078452207	21.952507991808
2	2793	218.886378778507	21.803304842129
2	2794	219.955882270258	21.711974955748
2	2795	220.660665558614	21.87868603106
2	2796	220.739243522512	21.901002810112
2	2797	220.998275270944	21.969420534416
2	2798	221.142627886599	21.883507876375
2	2799	221.3913420374	22.043039951505
2	2800	223.293456653509	21.727494671734
2	2801	223.573135266572	22.082500506104
2	2802	223.685281934715	21.762518994381

